atom_style full
boundary p p p
units real
bond_style harmonic
angle_style harmonic
dihedral_style opls
improper_style harmonic
pair_style lj/cut/coul/long 11.0 11.0
pair_modify mix arithmetic
special_bonds lj/coul 0.0 0.0 0.5
kspace_style pppm 0.0001

# ----------------- Atom Definition Section -----------------

read_data "ethanol_density_0.789.data"
Reading data file ...
  orthogonal box = (0 0 0) to (25 25 25)
  reading atoms ...
  1449 atoms
  scanning bonds ...
  scanning angles ...
  scanning dihedrals ...
  reading bonds ...
  1288 bonds
  reading angles ...
  2093 angles
  reading dihedrals ...
  1932 dihedrals
Finding 1-2 1-3 1-4 neighbors ...
     4 = max # of 1-2 neighbors
     4 = max # of 1-3 neighbors
     7 = max # of 1-4 neighbors
     8 = max # of special neighbors

# ----------------- Settings Section -----------------

neighbor 3.0 bin
neigh_modify every 2 delay 0 check yes one 3000

# ----------------- Run Section -----------------

thermo         1000
thermo_style    custom step time etotal pe ke density temp press vol lx enthalpy

reset_timestep 0

#  -- minimize --
minimize 1.0e-6 1.0e-8 10000 100000
PPPM initialization ...
  G vector (1/distance) = 0.2185021
  grid = 9 9 9
  stencil order = 5
  estimated absolute RMS force accuracy = 0.021156014
  estimated relative force accuracy = 6.3710707e-05
  3d grid and FFT values/proc = 1210 81
Generated 10 of 10 mixed pair_coeff terms from arithmetic mixing rule
  update every 1 steps, delay 0 steps, check yes
Step          Time          TotEng         PotEng         KinEng        Density          Temp          Press          Volume           Lx          Enthalpy
0   0              6160.9964      6160.9964      0              0.78824387     0              97924.373      15625          25             28475.474
Loop time of 3.78183 on 12 procs for 1147 steps with 1449 atoms

Minimization stats:
  Stopping criterion = energy tolerance
  Energy initial, next-to-last, final =
  Force two-norm initial, final = 5083.7201 8.0252202
  Force max component initial, final = 1096.6167 2.6859473
  Final line search alpha, max atom move = 0.0095102816 0.025544115
  Iterations, force evaluations = 1147 2323

write_data ethanol_solv_min.data
System init for write_data ...
PPPM initialization ...
  G vector (1/distance) = 0.2185021
  grid = 9 9 9
  stencil order = 5
  estimated absolute RMS force accuracy = 0.021156014
  estimated relative force accuracy = 6.3710707e-05
  3d grid and FFT values/proc = 1210 81
Generated 10 of 10 mixed pair_coeff terms from arithmetic mixing rule

## Equil NPT ##

fix      NPT  all npt temp 298 298 100 iso 1 1 1000
dump 1 all dcd 1000 etho_npt.dcd

run 500000
PPPM initialization ...
  G vector (1/distance) = 0.2185021
  grid = 9 9 9
  stencil order = 5
  estimated absolute RMS force accuracy = 0.021156014
  estimated relative force accuracy = 6.3710707e-05
  3d grid and FFT values/proc = 1210 81
Generated 10 of 10 mixed pair_coeff terms from arithmetic mixing rule
Step          Time          TotEng         PotEng         KinEng        Density          Temp          Press          Volume           Lx          Enthalpy
1147   0             -1651.9487     -1651.9487      0              0.78824387     0             -1850.0221      15625          25            -2073.5217
Averages over the last 251 of 502 rows, steps 252000 to 501147:
TotEng PotEng KinEng Density Temp Press Volume Lx Enthalpy
942.378 -342.56 1284.94 0.774348 297.7 -85.4113 15909.7 25.1502 921.824
Loop time of 669.046 on 12 procs for 500000 steps with 1449 atoms

write_data etho_npt_equil.data
System init for write_data ...
PPPM initialization ...
  G vector (1/distance) = 0.2184402
  grid = 9 9 9
  stencil order = 5
  estimated absolute RMS force accuracy = 0.02120148
  estimated relative force accuracy = 6.3847629e-05
  3d grid and FFT values/proc = 1210 81
Generated 10 of 10 mixed pair_coeff terms from arithmetic mixing rule
